/*--------------------------------*- C++ -*----------------------------------*\
| =========                 |                                                 |
| \\      /  F ield         | OpenFOAM: The Open Source CFD Toolbox           |
|  \\    /   O peration     | Version:  v2509                                 |
|   \\  /    A nd           | Website:  www.openfoam.com                      |
|    \\/     M anipulation  |                                                 |
\*---------------------------------------------------------------------------*/
FoamFile
{
    version     2.0;
    format      ascii;
    class       dictionary;
    object      blockMeshDict;
}
//*******************************************************************************//

scale   1.0;

vertices
(
    (0.0 0.0 0.0)
    (0.5 0.0 0.0)
    (0.5 0.2 0.0)
    (0.0 0.2 0.0)
    (0.0 0.0 0.1)
    (0.5 0.0 0.1)
    (0.5 0.2 0.1)
    (0.0 0.2 0.1)
);

blocks
(
    hex (0 1 2 3 4 5 6 7) (50 20 50) simpleGrading (1 1 1)
);

edges
(
);

boundary
(
    inlet
    {
        type patch;
        faces
        (
            (0 4 7 3)
        );
    }
    outlet
    {
        type patch;
        faces
        (
            (1 2 6 5)
        );
    }
    frontWall
    {
        type patch;
        faces
        (
            (0 1 5 4)
        );
    }
    backWall
    {
        type patch;
        faces
        (
            (2 3 7 6)
        );
    }
    floor
    {
        type patch;
        faces
        (
            (0 3 2 1)
        );
    }
    ceiling
    {
        type patch;
        faces
        (
            (4 5 6 7)
        );
    }
);

mergePatchPairs
(
);

//*******************************************************************************//
